data_In4Te3m
_audit_creation_date              2017-11-02
_audit_creation_method            'Materials Studio'
_symmetry_space_group_name_H-M    'PM'
_symmetry_Int_Tables_number       6
_symmetry_cell_setting            monoclinic
loop_
_symmetry_equiv_pos_as_xyz
  x,y,z
  x,-y,z
_cell_length_a                    16.0001
_cell_length_b                    4.5159
_cell_length_c                    12.9952
_cell_angle_alpha                 90.0000
_cell_angle_beta                  90.0000
_cell_angle_gamma                 90.0000
loop_
_atom_site_label
_atom_site_type_symbol
_atom_site_fract_x
_atom_site_fract_y
_atom_site_fract_z
_atom_site_U_iso_or_equiv
_atom_site_adp_type
_atom_site_occupancy
In1    In    0.31695   0.50000   0.97452   0.01267  Uiso   1.00
In4    In    0.92749   0.50000   0.10312   0.01267  Uiso   1.00
In5    In    0.07251   0.50000   0.89688   0.01267  Uiso   1.00
In8    In    0.53565   0.50000   0.14638   0.01267  Uiso   1.00
In9    In    0.46435   0.50000   0.85362   0.01267  Uiso   1.00
In12   In    0.21483   0.50000   0.15518   0.01267  Uiso   1.00
In13   In    0.78517   0.50000   0.84482   0.01267  Uiso   1.00
Te3    Te    0.27447   0.50000   0.36384   0.01267  Uiso   1.00
Te4    Te    0.72553   0.50000   0.63616   0.01267  Uiso   1.00
Te7    Te    0.59600   0.50000   0.36058   0.01267  Uiso   1.00
Te8    Te    0.40400   0.50000   0.63942   0.01267  Uiso   1.00
Te11   Te    0.92258   0.50000   0.35166   0.01267  Uiso   1.00
Te12   Te    0.07741   0.50000   0.64834   0.01267  Uiso   1.00
In2    In    0.18305  -0.00000   0.47452   0.01267  Uiso   1.00
In3    In    0.81695  -0.00000   0.52548   0.01267  Uiso   1.00
In6    In    0.42749  -0.00000   0.39688   0.01267  Uiso   1.00
In7    In    0.57251  -0.00000   0.60312   0.01267  Uiso   1.00
In10   In    0.03565  -0.00000   0.35362   0.01267  Uiso   1.00
In11   In    0.96435  -0.00000   0.64638   0.01267  Uiso   1.00
In14   In    0.71483  -0.00000   0.34482   0.01267  Uiso   1.00
In15   In    0.28517  -0.00000   0.65518   0.01267  Uiso   1.00
Te1    Te    0.77447  -0.00000   0.13616   0.01267  Uiso   1.00
Te2    Te    0.22553  -0.00000   0.86384   0.01267  Uiso   1.00
Te5    Te    0.09600  -0.00000   0.13942   0.01267  Uiso   1.00
Te6    Te    0.90400  -0.00000   0.86058   0.01267  Uiso   1.00
Te9    Te    0.42259  -0.00000   0.14833   0.01267  Uiso   1.00
Te10   Te    0.57742  -0.00000   0.85166   0.01267  Uiso   1.00
