# generated using pymatgen
data_In4Te3
_symmetry_space_group_name_H-M   Pnnm
_cell_length_a   12.99524208
_cell_length_b   16.00012950
_cell_length_c   4.51586541
_cell_angle_alpha   90.00000000
_cell_angle_beta   90.00000000
_cell_angle_gamma   90.00000000
_symmetry_Int_Tables_number   58
_chemical_formula_structural   In4Te3
_chemical_formula_sum   'In16 Te12'
_cell_volume   938.963826935
_cell_formula_units_Z   4
loop_
 _symmetry_equiv_pos_site_id
 _symmetry_equiv_pos_as_xyz
  1  'x, y, z'
  2  '-x, -y, -z'
  3  '-x, -y, z'
  4  'x, y, -z'
  5  'x+1/2, -y+1/2, -z+1/2'
  6  '-x+1/2, y+1/2, z+1/2'
  7  '-x+1/2, y+1/2, -z+1/2'
  8  'x+1/2, -y+1/2, z+1/2'
loop_
 _atom_site_type_symbol
 _atom_site_label
 _atom_site_symmetry_multiplicity
 _atom_site_fract_x
 _atom_site_fract_y
 _atom_site_fract_z
 _atom_site_occupancy
  In  In1  4  0.025483  0.683048  0.500000  1
  In  In2  4  0.103122  0.927493  0.500000  1
  In  In3  4  0.146379  0.535646  0.500000  1
  In  In4  4  0.155178  0.214833  0.500000  1
  Te  Te5  4  0.136159  0.774472  0.000000  1
  Te  Te6  4  0.139424  0.095996  0.000000  1
  Te  Te7  4  0.148335  0.422585  0.000000  1
