# generated using pymatgen
data_TlCu5Se3
_symmetry_space_group_name_H-M   P4_2/mnm
_cell_length_a   12.92435920
_cell_length_b   12.92435920
_cell_length_c   3.94778838
_cell_angle_alpha   90.00000000
_cell_angle_beta   90.00000000
_cell_angle_gamma   90.00000000
_symmetry_Int_Tables_number   136
_chemical_formula_structural   TlCu5Se3
_chemical_formula_sum   'Tl4 Cu20 Se12'
_cell_volume   659.434862958
_cell_formula_units_Z   4
loop_
 _symmetry_equiv_pos_site_id
 _symmetry_equiv_pos_as_xyz
  1  'x, y, z'
  2  '-x, -y, -z'
  3  '-y+1/2, x+1/2, z+1/2'
  4  'y+1/2, -x+1/2, -z+1/2'
  5  '-x, -y, z'
  6  'x, y, -z'
  7  'y+1/2, -x+1/2, z+1/2'
  8  '-y+1/2, x+1/2, -z+1/2'
  9  'x+1/2, -y+1/2, -z+1/2'
  10  '-x+1/2, y+1/2, z+1/2'
  11  '-y, -x, -z'
  12  'y, x, z'
  13  '-x+1/2, y+1/2, -z+1/2'
  14  'x+1/2, -y+1/2, z+1/2'
  15  'y, x, -z'
  16  '-y, -x, z'
loop_
 _atom_site_type_symbol
 _atom_site_label
 _atom_site_symmetry_multiplicity
 _atom_site_fract_x
 _atom_site_fract_y
 _atom_site_fract_z
 _atom_site_occupancy
  Tl  Tl1  4  0.107245  0.107245  0.000000  1
  Cu  Cu2  8  0.014230  0.397124  0.000000  1
  Cu  Cu3  8  0.079275  0.712771  0.500000  1
  Cu  Cu4  4  0.180101  0.819899  0.000000  1
  Se  Se5  8  0.118244  0.324984  0.500000  1
  Se  Se6  4  0.101132  0.898868  0.500000  1
